Version 4.1
SHEET 1 4160 1312
WIRE 704 -192 576 -192
WIRE 896 -192 784 -192
WIRE 2448 -192 2368 -192
WIRE 2768 -192 2528 -192
WIRE 2080 -176 1632 -176
WIRE 3104 -160 3024 -160
WIRE 3424 -160 3184 -160
WIRE 3680 -128 3600 -128
WIRE 4000 -128 3760 -128
WIRE 1632 -64 1632 -176
WIRE 1712 -64 1632 -64
WIRE 240 -32 128 -32
WIRE 448 -32 304 -32
WIRE 576 -32 576 -192
WIRE 576 -32 528 -32
WIRE 688 -32 576 -32
WIRE 752 -32 752 -64
WIRE 2080 -32 2080 -176
WIRE 2080 -32 1856 -32
WIRE 2240 -32 2144 -32
WIRE 2368 -32 2368 -192
WIRE 2368 -32 2320 -32
WIRE 2448 -32 2368 -32
WIRE 688 -16 688 -32
WIRE 720 -16 688 -16
WIRE 896 0 896 -192
WIRE 896 0 784 0
WIRE 1120 0 896 0
WIRE 1200 0 1184 0
WIRE 1328 0 1200 0
WIRE 1424 0 1328 0
WIRE 1712 0 1488 0
WIRE 2768 0 2768 -192
WIRE 2768 0 2592 0
WIRE 2896 0 2768 0
WIRE 3024 0 3024 -160
WIRE 3024 0 2976 0
WIRE 3104 0 3024 0
WIRE 720 16 688 16
WIRE 688 32 688 16
WIRE 688 32 544 32
WIRE 2448 32 2416 32
WIRE 3424 32 3424 -160
WIRE 3424 32 3248 32
WIRE 3472 32 3424 32
WIRE 3600 32 3600 -128
WIRE 3600 32 3552 32
WIRE 3680 32 3600 32
WIRE 1200 64 1200 0
WIRE 1328 64 1328 0
WIRE 3104 64 3072 64
WIRE 4000 64 4000 -128
WIRE 4000 64 3824 64
WIRE 4080 64 4000 64
WIRE 544 80 544 32
WIRE 752 80 752 32
WIRE 128 96 128 -32
WIRE 3680 96 3648 96
WIRE 1744 112 1744 48
WIRE 2480 112 2480 80
WIRE 3136 144 3136 112
WIRE 1200 176 1200 144
WIRE 1280 176 1200 176
WIRE 1328 176 1328 128
WIRE 1328 176 1280 176
WIRE 3712 176 3712 144
WIRE 128 208 128 176
WIRE 1280 240 1280 176
WIRE 1168 528 1168 496
WIRE 1280 528 1280 496
WIRE 1392 528 1392 496
WIRE 1168 640 1168 608
WIRE 1280 640 1280 608
WIRE 1392 640 1392 608
FLAG 128 208 0
FLAG 1280 240 0
FLAG 1168 640 0
FLAG 1168 496 5V
FLAG 1280 640 0
FLAG 1280 496 2.5V
FLAG 544 80 2.5V
FLAG 752 80 0
FLAG 752 -64 5V
FLAG 1744 112 0
FLAG 1744 -112 5V
FLAG 2480 -80 5V
FLAG 2480 112 0
FLAG 2416 32 2.5V
FLAG 3136 -48 5V
FLAG 3136 144 0
FLAG 3072 64 2.5V
FLAG 3712 -16 3.3V
FLAG 3712 176 0
FLAG 3648 96 2.5V
FLAG 4080 64 OUT1
FLAG 1392 640 0
FLAG 1392 496 3.3V
SYMBOL bv 128 80 R0
SYMATTR InstName B1
SYMATTR Value V = { if(sin(2*pi*100*time) > 0, cos(2*pi*89k*time)*0.01, 0)}
SYMBOL res 1184 48 R0
SYMATTR InstName R1
SYMATTR Value 20k
SYMBOL cap 1312 64 R0
SYMATTR InstName C1
SYMATTR Value 50n
SYMBOL voltage 1168 512 R0
WINDOW 123 0 0 Left 0
WINDOW 39 0 0 Left 0
SYMATTR InstName V1
SYMATTR Value 5
SYMBOL voltage 1280 512 R0
WINDOW 123 0 0 Left 0
WINDOW 39 0 0 Left 0
SYMATTR InstName V3
SYMATTR Value 2.5
SYMBOL schottky 1120 16 R270
WINDOW 0 32 32 VTop 2
WINDOW 3 0 32 VBottom 2
SYMATTR InstName D1
SYMATTR Value 1N5817
SYMATTR Description Diode
SYMATTR Type diode
SYMBOL res 544 -48 R90
WINDOW 0 0 56 VBottom 2
WINDOW 3 32 56 VTop 2
SYMATTR InstName R11
SYMATTR Value 1k
SYMBOL res 800 -208 R90
WINDOW 0 0 56 VBottom 2
WINDOW 3 32 56 VTop 2
SYMATTR InstName R12
SYMATTR Value 80k
SYMBOL cap 304 -48 R90
WINDOW 0 0 32 VBottom 2
WINDOW 3 32 32 VTop 2
SYMATTR InstName C8
SYMATTR Value 1µ
SYMBOL cap 2144 -48 R90
WINDOW 0 0 32 VBottom 2
WINDOW 3 32 32 VTop 2
SYMATTR InstName C2
SYMATTR Value 1µ
SYMBOL cap 1488 -16 R90
WINDOW 0 0 32 VBottom 2
WINDOW 3 32 32 VTop 2
SYMATTR InstName C3
SYMATTR Value 1µ
SYMBOL OpAmps\\LTC2064 1744 -32 R0
SYMATTR InstName U3
SYMBOL OpAmps\\LTC2064 2480 0 R0
SYMATTR InstName U2
SYMBOL res 2544 -208 R90
WINDOW 0 0 56 VBottom 2
WINDOW 3 32 56 VTop 2
SYMATTR InstName R4
SYMATTR Value 100k
SYMBOL res 2336 -48 R90
WINDOW 0 0 56 VBottom 2
WINDOW 3 32 56 VTop 2
SYMATTR InstName R14
SYMATTR Value 2k
SYMBOL OpAmps\\ADTL084 752 -64 R0
SYMATTR InstName U1
SYMBOL OpAmps\\LTC2064 3136 32 R0
SYMATTR InstName U4
SYMBOL res 3200 -176 R90
WINDOW 0 0 56 VBottom 2
WINDOW 3 32 56 VTop 2
SYMATTR InstName R2
SYMATTR Value 100k
SYMBOL res 2992 -16 R90
WINDOW 0 0 56 VBottom 2
WINDOW 3 32 56 VTop 2
SYMATTR InstName R3
SYMATTR Value 3k
SYMBOL OpAmps\\LTC2064 3712 64 R0
SYMATTR InstName U5
SYMBOL res 3776 -144 R90
WINDOW 0 0 56 VBottom 2
WINDOW 3 32 56 VTop 2
SYMATTR InstName R5
SYMATTR Value 100k
SYMBOL res 3568 16 R90
WINDOW 0 0 56 VBottom 2
WINDOW 3 32 56 VTop 2
SYMATTR InstName R6
SYMATTR Value 4k
SYMBOL voltage 1392 512 R0
WINDOW 123 0 0 Left 0
WINDOW 39 0 0 Left 0
SYMATTR InstName V2
SYMATTR Value 3.3V
TEXT 96 232 Left 2 !.tran 0 150m 100m 0.000001
